/*--------------------------------*- C++ -*----------------------------------*\
  =========                 |
  \\      /  F ield         | OpenFOAM: The Open Source CFD Toolbox
   \\    /   O peration     | Website:  https://openfoam.org
    \\  /    A nd           | Version:  11
     \\/     M anipulation  |
\*---------------------------------------------------------------------------*/
FoamFile
{
    format      ascii;
    class       polyBoundaryMesh;
    location    "constant/polyMesh";
    object      boundary;
}
// * * * * * * * * * * * * * * * * * * * * * * * * * * * * * * * * * * * * * //

5
(
    inlet
    {
        type            patch;
        nFaces          30;
        startFace       12390;
    }
    outlet
    {
        type            patch;
        nFaces          30;
        startFace       12420;
    }
    wall
    {
        type            wall;
        inGroups        List<word> 1(wall);
        nFaces          240;
        startFace       12450;
    }
    cylinder
    {
        type            wall;
        inGroups        List<word> 1(wall);
        nFaces          120;
        startFace       12690;
    }
    frontAndBack
    {
        type            empty;
        inGroups        List<word> 1(empty);
        nFaces          12600;
        startFace       12810;
    }
)

// ************************************************************************* //
